# generated from VESTA + NET
data_generated
_symmetry_space_group_name_H-M   'P 1'
_cell_length_a   9.844000
_cell_length_b   7.008000
_cell_length_c   13.250000
_cell_angle_alpha   90.000000
_cell_angle_beta   90.100000
_cell_angle_gamma   90.000000
_symmetry_Int_Tables_number   1
_chemical_formula_sum   'Interstitial'
_cell_formula_units_Z   1
loop_
_symmetry_equiv_pos_site_id
_symmetry_equiv_pos_as_xyz
 1 'x, y, z'

loop_
_atom_site_type_symbol
_atom_site_label
_atom_site_symmetry_multiplicity
_atom_site_fract_x
_atom_site_fract_y
_atom_site_fract_z
_atom_site_occupancy
_atom_site_u_iso_or_equiv
He He0 1 0.987544 0.061230 0.111427 1.00 0.7644
He He1 1 0.996758 0.055243 0.015217 1.00 1.2290
He He2 1 0.983802 0.093157 0.059061 1.00 1.0473
He He3 1 0.859807 0.107876 0.072097 1.00 0.6153
He He4 1 0.835656 0.053399 0.007667 1.00 0.7792
He He5 1 0.999719 0.491778 0.938488 1.00 0.8235
He He6 1 0.217678 0.450819 0.232377 1.00 0.7975
He He7 1 1.000000 0.444553 0.250000 1.00 0.7615
He He8 1 0.016198 0.093157 0.440939 1.00 1.0473
He He9 1 0.950071 0.387775 0.300404 1.00 0.7077
He He10 1 0.930394 0.226203 0.320268 1.00 0.6619
He He11 1 0.049929 0.387775 0.199596 1.00 0.7077
He He12 1 0.944636 0.176560 0.305891 1.00 0.5994
He He13 1 0.205836 0.242415 0.201444 1.00 0.5261
He He14 1 0.101563 0.541938 0.376032 1.00 0.9624
He He15 1 0.264256 0.080382 0.269424 1.00 0.7668
He He16 1 0.985288 0.170261 0.433889 1.00 0.9278
He He17 1 0.235744 0.419618 0.230576 1.00 0.7668
He He18 1 0.294164 0.257585 0.298556 1.00 0.5261
He He19 1 0.069606 0.226203 0.179732 1.00 0.6619
He He20 1 0.055364 0.176560 0.194109 1.00 0.5994
He He21 1 0.017097 0.451122 0.395214 1.00 0.7960
He He22 1 0.113844 0.558645 0.329035 1.00 0.9257
He He23 1 0.242647 0.038074 0.279776 1.00 0.7928
He He24 1 0.140193 0.107876 0.427903 1.00 0.6153
He He25 1 0.178372 0.022037 0.272444 1.00 0.6147
He He26 1 0.012456 0.061230 0.388573 1.00 0.7644
He He27 1 0.382199 0.921655 0.168218 1.00 0.9272
He He28 1 0.254236 0.811765 0.221769 1.00 0.8286
He He29 1 0.041510 0.856064 0.075261 1.00 0.8165
He He30 1 0.234065 0.828218 0.239333 1.00 0.8325
He He31 1 0.168848 0.153359 0.015871 1.00 0.5912
He He32 1 0.204217 0.788837 0.101720 1.00 0.5546
He He33 1 0.033431 0.875564 0.115437 1.00 0.6514
He He34 1 0.270822 0.849678 0.048197 1.00 0.7036
He He35 1 0.395608 0.939697 0.116658 1.00 0.9784
He He36 1 0.332797 0.897596 0.059598 1.00 0.7918
He He37 1 0.386156 0.941355 0.170965 1.00 0.9257
He He38 1 0.398437 0.958062 0.123968 1.00 0.9624
He He39 1 0.021586 0.959536 0.002656 1.00 1.2157
He He40 1 0.035330 0.151275 0.023892 1.00 1.0309
He He41 1 0.014712 0.170261 0.066111 1.00 0.9278
He He42 1 0.179794 0.854625 0.240732 1.00 0.6604
He He43 1 0.282322 0.049181 0.267623 1.00 0.7975
He He44 1 0.255780 0.022646 0.277720 1.00 0.8080
He He45 1 0.296323 0.496428 0.004361 1.00 0.6610
He He46 1 0.359807 0.392124 0.072097 1.00 0.6153
He He47 1 0.167203 0.397596 0.940402 1.00 0.7918
He He48 1 0.982903 0.451122 0.104786 1.00 0.7960
He He49 1 0.335656 0.446601 0.007667 1.00 0.7792
He He50 1 0.229178 0.349678 0.951803 1.00 0.7036
He He51 1 0.058456 0.387906 0.949409 1.00 0.9960
He He52 1 0.244220 0.477354 0.222280 1.00 0.8080
He He53 1 0.257353 0.461926 0.220224 1.00 0.7928
He He54 1 0.555364 0.323440 0.194109 1.00 0.5994
He He55 1 0.549929 0.112225 0.199596 1.00 0.7077
He He56 1 0.500000 0.055447 0.250000 1.00 0.7615
He He57 1 0.430394 0.273797 0.320268 1.00 0.6619
He He58 1 0.483802 0.406843 0.059061 1.00 1.0473
He He59 1 0.569606 0.273797 0.179732 1.00 0.6619
He He60 1 0.444636 0.323440 0.305891 1.00 0.5994
He He61 1 0.450071 0.112225 0.300404 1.00 0.7077
He He62 1 0.321628 0.477963 0.227556 1.00 0.6147
He He63 1 0.487544 0.438770 0.111427 1.00 0.7644
He He64 1 0.482903 0.048878 0.104786 1.00 0.7960
He He65 1 0.514712 0.329739 0.066111 1.00 0.9278
He He66 1 0.512456 0.438770 0.388573 1.00 0.7644
He He67 1 0.764256 0.419618 0.269424 1.00 0.7668
He He68 1 0.517097 0.048878 0.395214 1.00 0.7960
He He69 1 0.705836 0.257585 0.201444 1.00 0.5261
He He70 1 0.485288 0.329739 0.433889 1.00 0.9278
He He71 1 0.601563 0.958062 0.376032 1.00 0.9624
He He72 1 0.794164 0.242415 0.298556 1.00 0.5261
He He73 1 0.735744 0.080382 0.230576 1.00 0.7668
He He74 1 0.742647 0.461926 0.279776 1.00 0.7928
He He75 1 0.516198 0.406843 0.440939 1.00 1.0473
He He76 1 0.640193 0.392124 0.427903 1.00 0.6153
He He77 1 0.717678 0.049181 0.232377 1.00 0.7975
He He78 1 0.613844 0.941355 0.329035 1.00 0.9257
He He79 1 0.678372 0.477963 0.272444 1.00 0.6147
He He80 1 0.295783 0.288837 0.898280 1.00 0.5546
He He81 1 0.458490 0.356064 0.924739 1.00 0.8165
He He82 1 0.496758 0.444757 0.015217 1.00 1.2290
He He83 1 0.296976 0.260021 0.899040 1.00 0.4509
He He84 1 0.558456 0.112094 0.949409 1.00 0.9960
He He85 1 0.499719 0.008222 0.938488 1.00 0.8235
He He86 1 0.556897 0.109740 0.946283 1.00 0.9992
He He87 1 0.443103 0.890260 0.053717 1.00 0.9992
He He88 1 0.441544 0.887906 0.050591 1.00 0.9960
He He89 1 0.478414 0.459535 0.997344 1.00 1.2157
He He90 1 0.500281 0.991778 0.061512 1.00 0.8235
He He91 1 0.535330 0.348725 0.023892 1.00 1.0309
He He92 1 0.886156 0.558645 0.170965 1.00 0.9257
He He93 1 0.757353 0.038074 0.220224 1.00 0.7928
He He94 1 0.782322 0.450819 0.267623 1.00 0.7975
He He95 1 0.898437 0.541938 0.123968 1.00 0.9624
He He96 1 0.821628 0.022037 0.227556 1.00 0.6147
He He97 1 0.770822 0.650322 0.048197 1.00 0.7036
He He98 1 0.832797 0.602404 0.059598 1.00 0.7918
He He99 1 0.679794 0.645375 0.240732 1.00 0.6604
He He100 1 0.521586 0.540465 0.002656 1.00 1.2157
He He101 1 0.754236 0.688235 0.221769 1.00 0.8286
He He102 1 0.541510 0.643936 0.075260 1.00 0.8165
He He103 1 0.668848 0.346641 0.015871 1.00 0.5912
He He104 1 0.533431 0.624436 0.115437 1.00 0.6514
He He105 1 0.704217 0.711163 0.101720 1.00 0.5546
He He106 1 0.703677 0.503572 0.995639 1.00 0.6610
He He107 1 0.664344 0.553399 0.992333 1.00 0.7792
He He108 1 0.734065 0.671782 0.239333 1.00 0.8325
He He109 1 0.755780 0.477354 0.277720 1.00 0.8080
He He110 1 0.895608 0.560303 0.116658 1.00 0.9784
He He111 1 0.882199 0.578345 0.168218 1.00 0.9272
He He112 1 0.795783 0.211163 0.898280 1.00 0.5546
He He113 1 0.056897 0.390260 0.946283 1.00 0.9992
He He114 1 0.941544 0.612094 0.050591 1.00 0.9960
He He115 1 0.958490 0.143936 0.924739 1.00 0.8165
He He116 1 0.796976 0.239979 0.899040 1.00 0.4509
He He117 1 0.943103 0.609740 0.053717 1.00 0.9992
He He118 1 0.978414 0.040465 0.997344 1.00 1.2157
He He119 1 0.729178 0.150322 0.951803 1.00 0.7036
He He120 1 0.667204 0.102404 0.940402 1.00 0.7918
He He121 1 0.744220 0.022646 0.222280 1.00 0.8080
He He122 1 0.203024 0.760021 0.100960 1.00 0.4509
He He123 1 0.064389 0.736084 0.294701 1.00 0.4820
He He124 1 0.935611 0.736084 0.205299 1.00 0.4820
He He125 1 0.117801 0.578345 0.331782 1.00 0.9272
He He126 1 0.245764 0.688235 0.278231 1.00 0.8286
He He127 1 0.265935 0.671782 0.260667 1.00 0.8325
He He128 1 0.435611 0.763916 0.205299 1.00 0.4820
He He129 1 0.564389 0.763916 0.294701 1.00 0.4820
He He130 1 0.320206 0.645375 0.259268 1.00 0.6604
He He131 1 0.466569 0.624436 0.384563 1.00 0.6514
He He132 1 0.331152 0.653359 0.984129 1.00 0.5912
He He133 1 0.464670 0.651275 0.976108 1.00 1.0309
He He134 1 0.503242 0.555243 0.984783 1.00 1.2290
He He135 1 0.745764 0.811765 0.278231 1.00 0.8286
He He136 1 0.703024 0.739979 0.100960 1.00 0.4509
He He137 1 0.765935 0.828218 0.260667 1.00 0.8325
He He138 1 0.617801 0.921655 0.331782 1.00 0.9272
He He139 1 0.604392 0.939697 0.383342 1.00 0.9784
He He140 1 0.295783 0.711163 0.398280 1.00 0.5546
He He141 1 0.296976 0.739979 0.399040 1.00 0.4509
He He142 1 0.556897 0.890260 0.446283 1.00 0.9992
He He143 1 0.499719 0.991778 0.438488 1.00 0.8235
He He144 1 0.458490 0.643936 0.424740 1.00 0.8165
He He145 1 0.820206 0.854625 0.259268 1.00 0.6604
He He146 1 0.966569 0.875564 0.384563 1.00 0.6514
He He147 1 0.831152 0.846641 0.984129 1.00 0.5912
He He148 1 0.964670 0.848725 0.976108 1.00 1.0309
He He149 1 0.104392 0.560303 0.383342 1.00 0.9784
He He150 1 0.795783 0.788837 0.398280 1.00 0.5546
He He151 1 0.796976 0.760021 0.399040 1.00 0.4509
He He152 1 0.056897 0.609740 0.446283 1.00 0.9992
He He153 1 0.958490 0.856064 0.424740 1.00 0.8165
He He154 1 0.999719 0.508222 0.438488 1.00 0.8235
He He155 1 0.203024 0.239979 0.600960 1.00 0.4509
He He156 1 0.229178 0.650322 0.451803 1.00 0.7036
He He157 1 0.167203 0.602404 0.440402 1.00 0.7918
He He158 1 0.335656 0.553399 0.507667 1.00 0.7792
He He159 1 0.296323 0.503572 0.504361 1.00 0.6610
He He160 1 0.331152 0.346641 0.484129 1.00 0.5912
He He161 1 0.464670 0.348725 0.476108 1.00 1.0309
He He162 1 0.478414 0.540465 0.497344 1.00 1.2157
He He163 1 0.503242 0.444757 0.484783 1.00 1.2290
He He164 1 0.058456 0.612094 0.449409 1.00 0.9960
He He165 1 0.943103 0.390260 0.553717 1.00 0.9992
He He166 1 0.164344 0.053399 0.492333 1.00 0.7792
He He167 1 0.964670 0.151275 0.476108 1.00 1.0309
He He168 1 0.941544 0.387906 0.550591 1.00 0.9960
He He169 1 0.000281 0.491778 0.561512 1.00 0.8235
He He170 1 0.003242 0.055243 0.484783 1.00 1.2290
He He171 1 0.021586 0.040464 0.502656 1.00 1.2157
He He172 1 0.204217 0.211163 0.601720 1.00 0.5546
He He173 1 0.041510 0.143936 0.575260 1.00 0.8165
He He174 1 0.270822 0.150322 0.548197 1.00 0.7036
He He175 1 0.441544 0.112094 0.550591 1.00 0.9960
He He176 1 0.203677 0.003572 0.495639 1.00 0.6610
He He177 1 0.332796 0.102404 0.559598 1.00 0.7918
He He178 1 0.359807 0.607876 0.572097 1.00 0.6153
He He179 1 0.533431 0.375564 0.615437 1.00 0.6514
He He180 1 0.321628 0.522037 0.727556 1.00 0.6147
He He181 1 0.382199 0.078345 0.668218 1.00 0.9272
He He182 1 0.496758 0.555243 0.515217 1.00 1.2290
He He183 1 0.435611 0.236084 0.705299 1.00 0.4820
He He184 1 0.254236 0.188235 0.721769 1.00 0.8286
He He185 1 0.320206 0.354625 0.759268 1.00 0.6604
He He186 1 0.257353 0.538074 0.720224 1.00 0.7928
He He187 1 0.541510 0.356064 0.575260 1.00 0.8165
He He188 1 0.521586 0.459535 0.502656 1.00 1.2157
He He189 1 0.244220 0.522646 0.722280 1.00 0.8080
He He190 1 0.265935 0.328218 0.760667 1.00 0.8325
He He191 1 0.443103 0.109740 0.553717 1.00 0.9992
He He192 1 0.395608 0.060303 0.616658 1.00 0.9784
He He193 1 0.483802 0.593157 0.559061 1.00 1.0473
He He194 1 0.487544 0.561230 0.611427 1.00 0.7644
He He195 1 0.796323 0.996428 0.504361 1.00 0.6610
He He196 1 0.500281 0.008222 0.561512 1.00 0.8235
He He197 1 0.667204 0.897596 0.440402 1.00 0.7918
He He198 1 0.831152 0.153359 0.484129 1.00 0.5912
He He199 1 0.664344 0.446601 0.492333 1.00 0.7792
He He200 1 0.558456 0.887906 0.449409 1.00 0.9960
He He201 1 0.770822 0.349678 0.548197 1.00 0.7036
He He202 1 0.703024 0.260021 0.600960 1.00 0.4509
He He203 1 0.704217 0.288837 0.601720 1.00 0.5546
He He204 1 0.729178 0.849678 0.451803 1.00 0.7036
He He205 1 0.835656 0.946601 0.507667 1.00 0.7792
He He206 1 0.978414 0.959535 0.497344 1.00 1.2157
He He207 1 0.935611 0.263916 0.705299 1.00 0.4820
He He208 1 0.033431 0.124436 0.615437 1.00 0.6514
He He209 1 0.765935 0.171782 0.760667 1.00 0.8325
He He210 1 0.744220 0.977354 0.722280 1.00 0.8080
He He211 1 0.821628 0.977963 0.727556 1.00 0.6147
He He212 1 0.859807 0.892124 0.572097 1.00 0.6153
He He213 1 0.757353 0.961926 0.720224 1.00 0.7928
He He214 1 0.820206 0.145375 0.759268 1.00 0.6604
He He215 1 0.832797 0.397596 0.559598 1.00 0.7918
He He216 1 0.882199 0.421655 0.668218 1.00 0.9272
He He217 1 0.987544 0.938770 0.611427 1.00 0.7644
He He218 1 0.983802 0.906843 0.559061 1.00 1.0473
He He219 1 0.996758 0.944757 0.515217 1.00 1.2290
He He220 1 0.754236 0.311765 0.721769 1.00 0.8286
He He221 1 0.895608 0.439697 0.616658 1.00 0.9784
He He222 1 0.703677 0.496428 0.495639 1.00 0.6610
He He223 1 0.255780 0.977354 0.777720 1.00 0.8080
He He224 1 0.205836 0.757585 0.701444 1.00 0.5261
He He225 1 0.264256 0.919618 0.769424 1.00 0.7668
He He226 1 0.179794 0.145375 0.740732 1.00 0.6604
He He227 1 0.069606 0.773797 0.679732 1.00 0.6619
He He228 1 0.168848 0.846641 0.515871 1.00 0.5912
He He229 1 0.242647 0.961926 0.779776 1.00 0.7928
He He230 1 0.386156 0.058645 0.670965 1.00 0.9257
He He231 1 0.234065 0.171782 0.739333 1.00 0.8325
He He232 1 0.014712 0.829739 0.566111 1.00 0.9278
He He233 1 0.282322 0.950819 0.767623 1.00 0.7975
He He234 1 0.398437 0.041938 0.623968 1.00 0.9624
He He235 1 0.055364 0.823440 0.694109 1.00 0.5994
He He236 1 0.178372 0.977963 0.772444 1.00 0.6147
He He237 1 0.035330 0.848725 0.523892 1.00 1.0309
He He238 1 0.217678 0.549181 0.732377 1.00 0.7975
He He239 1 0.049929 0.612225 0.699596 1.00 0.7077
He He240 1 0.982903 0.548878 0.604786 1.00 0.7960
He He241 1 0.235744 0.580382 0.730576 1.00 0.7668
He He242 1 0.668848 0.653359 0.515871 1.00 0.5912
He He243 1 0.535330 0.651275 0.523892 1.00 1.0309
He He244 1 0.482903 0.951122 0.604786 1.00 0.7960
He He245 1 0.514712 0.670261 0.566111 1.00 0.9278
He He246 1 0.678372 0.522037 0.772444 1.00 0.6147
He He247 1 0.898437 0.458062 0.623968 1.00 0.9624
He He248 1 0.679794 0.354625 0.740732 1.00 0.6604
He He249 1 0.782322 0.549181 0.767623 1.00 0.7975
He He250 1 0.569606 0.726203 0.679732 1.00 0.6619
He He251 1 0.764256 0.580382 0.769424 1.00 0.7668
He He252 1 0.705836 0.742415 0.701444 1.00 0.5261
He He253 1 0.742647 0.538074 0.779776 1.00 0.7928
He He254 1 0.755780 0.522646 0.777720 1.00 0.8080
He He255 1 0.734065 0.328218 0.739333 1.00 0.8325
He He256 1 0.555364 0.676560 0.694109 1.00 0.5994
He He257 1 0.886156 0.441355 0.670965 1.00 0.9257
He He258 1 0.735744 0.919618 0.730576 1.00 0.7668
He He259 1 0.717678 0.950819 0.732377 1.00 0.7975
He He260 1 0.549929 0.887775 0.699596 1.00 0.7077
He He261 1 0.064389 0.263916 0.794701 1.00 0.4820
He He262 1 0.117801 0.421655 0.831782 1.00 0.9272
He He263 1 0.245764 0.311765 0.778231 1.00 0.8286
He He264 1 0.966569 0.124436 0.884563 1.00 0.6514
He He265 1 0.104392 0.439697 0.883342 1.00 0.9784
He He266 1 0.113844 0.441355 0.829035 1.00 0.9257
He He267 1 0.000000 0.555447 0.750000 1.00 0.7615
He He268 1 0.444636 0.676560 0.805891 1.00 0.5994
He He269 1 0.564389 0.236084 0.794701 1.00 0.4820
He He270 1 0.466569 0.375564 0.884563 1.00 0.6514
He He271 1 0.512456 0.561230 0.888573 1.00 0.7644
He He272 1 0.604392 0.060303 0.883342 1.00 0.9784
He He273 1 0.745764 0.188235 0.778231 1.00 0.8286
He He274 1 0.617801 0.078345 0.831782 1.00 0.9272
He He275 1 0.640192 0.607876 0.927903 1.00 0.6153
He He276 1 0.516198 0.593157 0.940939 1.00 1.0473
He He277 1 0.613844 0.058645 0.829035 1.00 0.9257
He He278 1 0.500000 0.944553 0.750000 1.00 0.7615
He He279 1 0.517097 0.951122 0.895214 1.00 0.7960
He He280 1 0.450071 0.887775 0.800404 1.00 0.7077
He He281 1 0.601563 0.041938 0.876032 1.00 0.9624
He He282 1 0.944636 0.823440 0.805891 1.00 0.5994
He He283 1 0.950071 0.612225 0.800404 1.00 0.7077
He He284 1 0.017097 0.548878 0.895214 1.00 0.7960
He He285 1 0.101563 0.458062 0.876032 1.00 0.9624
He He286 1 0.930394 0.773797 0.820268 1.00 0.6619
He He287 1 0.294164 0.742415 0.798556 1.00 0.5261
He He288 1 0.985288 0.829739 0.933889 1.00 0.9278
He He289 1 0.430394 0.726203 0.820268 1.00 0.6619
He He290 1 0.485288 0.670261 0.933889 1.00 0.9278
He He291 1 0.794164 0.757585 0.798556 1.00 0.5261
He He292 1 0.203677 0.996428 0.995639 1.00 0.6610
He He293 1 0.164344 0.946601 0.992333 1.00 0.7792
He He294 1 0.000281 0.508222 0.061512 1.00 0.8235
He He295 1 0.003242 0.944758 0.984783 1.00 1.2290
He He296 1 0.140193 0.892124 0.927903 1.00 0.6153
He He297 1 0.016198 0.906843 0.940939 1.00 1.0473
He He298 1 0.012456 0.938770 0.888573 1.00 0.7644
Ne Ne299 1 0.987544 0.061230 0.111427 1.00 0.7644
Ne Ne300 1 0.983802 0.093157 0.059061 1.00 1.0473
Ne Ne301 1 0.981599 0.043031 0.000447 1.00 1.2151
Ne Ne302 1 0.983802 0.093157 0.059061 1.00 1.0473
Ne Ne303 1 0.987544 0.061230 0.111427 1.00 0.7644
Ne Ne304 1 0.859807 0.107876 0.072097 1.00 0.6153
Ne Ne305 1 0.859807 0.107876 0.072097 1.00 0.6153
Ne Ne306 1 0.855849 0.098946 0.061535 1.00 0.6084
Ne Ne307 1 0.838352 0.053155 0.007472 1.00 0.7791
Ne Ne308 1 0.855849 0.098946 0.061535 1.00 0.6084
Ne Ne309 1 0.977180 0.538392 0.981920 1.00 0.6999
Ne Ne310 1 0.174218 0.495950 0.272833 1.00 0.6498
Ne Ne311 1 0.235744 0.419618 0.230576 1.00 0.7668
Ne Ne312 1 0.124290 0.415721 0.214127 1.00 0.5412
Ne Ne313 1 0.226312 0.459451 0.229092 1.00 0.7943
Ne Ne314 1 0.968861 0.409143 0.281435 1.00 0.6761
Ne Ne315 1 0.955923 0.488726 0.219400 1.00 0.6445
Ne Ne316 1 0.140193 0.107876 0.427903 1.00 0.6153
Ne Ne317 1 0.012456 0.061230 0.388573 1.00 0.7644
Ne Ne318 1 0.016198 0.093157 0.440939 1.00 1.0473
Ne Ne319 1 0.968861 0.409143 0.281435 1.00 0.6761
Ne Ne320 1 0.939002 0.296891 0.311578 1.00 0.5894
Ne Ne321 1 0.978321 0.414474 0.340364 1.00 0.6026
Ne Ne322 1 0.875710 0.415721 0.285873 1.00 0.5412
Ne Ne323 1 0.944636 0.176560 0.305891 1.00 0.5994
Ne Ne324 1 0.947039 0.209240 0.354722 1.00 0.5941
Ne Ne325 1 0.939002 0.296891 0.311578 1.00 0.5894
Ne Ne326 1 0.844647 0.236408 0.306602 1.00 0.4495
Ne Ne327 1 0.124290 0.415721 0.214127 1.00 0.5412
Ne Ne328 1 0.060998 0.296891 0.188422 1.00 0.5894
Ne Ne329 1 0.031139 0.409143 0.218565 1.00 0.6761
Ne Ne330 1 0.021679 0.414474 0.159636 1.00 0.6026
Ne Ne331 1 0.969329 0.134568 0.335995 1.00 0.5019
Ne Ne332 1 0.944636 0.176560 0.305891 1.00 0.5994
Ne Ne333 1 0.224299 0.191209 0.222927 1.00 0.4547
Ne Ne334 1 0.155353 0.236408 0.193398 1.00 0.4495
Ne Ne335 1 0.213269 0.286453 0.208684 1.00 0.4942
Ne Ne336 1 0.034063 0.469363 0.391361 1.00 0.7843
Ne Ne337 1 0.110035 0.553463 0.343614 1.00 0.9163
Ne Ne338 1 0.101563 0.541938 0.376032 1.00 0.9624
Ne Ne339 1 0.286731 0.213547 0.291316 1.00 0.4942
Ne Ne340 1 0.260782 0.073580 0.271088 1.00 0.7658
Ne Ne341 1 0.224299 0.191209 0.222927 1.00 0.4547
Ne Ne342 1 0.264256 0.080382 0.269424 1.00 0.7668
Ne Ne343 1 0.947039 0.209240 0.354722 1.00 0.5941
Ne Ne344 1 0.985288 0.170261 0.433889 1.00 0.9278
Ne Ne345 1 0.985288 0.170261 0.433889 1.00 0.9278
Ne Ne346 1 0.213269 0.286453 0.208684 1.00 0.4942
Ne Ne347 1 0.235744 0.419618 0.230576 1.00 0.7668
Ne Ne348 1 0.275701 0.308791 0.277073 1.00 0.4547
Ne Ne349 1 0.239218 0.426420 0.228912 1.00 0.7658
Ne Ne350 1 0.275701 0.308791 0.277073 1.00 0.4547
Ne Ne351 1 0.286731 0.213547 0.291316 1.00 0.4942
Ne Ne352 1 0.344647 0.263592 0.306602 1.00 0.4495
Ne Ne353 1 0.060998 0.296891 0.188422 1.00 0.5894
Ne Ne354 1 0.155353 0.236408 0.193398 1.00 0.4495
Ne Ne355 1 0.055364 0.176560 0.194109 1.00 0.5994
Ne Ne356 1 0.052961 0.209240 0.145278 1.00 0.5941
Ne Ne357 1 0.055364 0.176560 0.194109 1.00 0.5994
Ne Ne358 1 0.030671 0.134568 0.164005 1.00 0.5019
Ne Ne359 1 0.003242 0.328790 0.412059 1.00 0.5846
Ne Ne360 1 0.034063 0.469363 0.391361 1.00 0.7843
Ne Ne361 1 0.010265 0.473568 0.412225 1.00 0.7760
Ne Ne362 1 0.110035 0.553463 0.343614 1.00 0.9163
Ne Ne363 1 0.174218 0.495950 0.272833 1.00 0.6498
Ne Ne364 1 0.044077 0.488726 0.280600 1.00 0.6445
Ne Ne365 1 0.115241 0.565598 0.330004 1.00 0.9251
Ne Ne366 1 0.178372 0.022037 0.272444 1.00 0.6147
Ne Ne367 1 0.260782 0.073580 0.271088 1.00 0.7658
Ne Ne368 1 0.242647 0.038074 0.279776 1.00 0.7928
Ne Ne369 1 0.140193 0.107876 0.427903 1.00 0.6153
Ne Ne370 1 0.144151 0.098946 0.438465 1.00 0.6084
Ne Ne371 1 0.178372 0.022037 0.272444 1.00 0.6147
Ne Ne372 1 0.012456 0.061230 0.388573 1.00 0.7644
Ne Ne373 1 0.308413 0.858291 0.199097 1.00 0.7069
Ne Ne374 1 0.385936 0.926683 0.153849 1.00 0.9181
Ne Ne375 1 0.384759 0.934402 0.169996 1.00 0.9251
Ne Ne376 1 0.434507 0.767177 0.204532 1.00 0.4929
Ne Ne377 1 0.245649 0.818769 0.229246 1.00 0.8239
Ne Ne378 1 0.219902 0.796027 0.139366 1.00 0.4749
Ne Ne379 1 0.308413 0.858291 0.199097 1.00 0.7069
Ne Ne380 1 0.260010 0.742671 0.240969 1.00 0.7531
Ne Ne381 1 0.041510 0.856064 0.075261 1.00 0.8165
Ne Ne382 1 0.150637 0.810975 0.093007 1.00 0.4628
Ne Ne383 1 0.033431 0.875564 0.115437 1.00 0.6514
Ne Ne384 1 0.001831 0.756743 0.066574 1.00 0.6491
Ne Ne385 1 0.179794 0.854625 0.240732 1.00 0.6604
Ne Ne386 1 0.245649 0.818769 0.229246 1.00 0.8239
Ne Ne387 1 0.245423 0.929915 0.259411 1.00 0.6823
Ne Ne388 1 0.239990 0.757329 0.259031 1.00 0.7531
Ne Ne389 1 0.168848 0.153359 0.015871 1.00 0.5912
Ne Ne390 1 0.183072 0.089269 0.007608 1.00 0.5252
Ne Ne391 1 0.221169 0.804322 0.088098 1.00 0.5340
Ne Ne392 1 0.219902 0.796027 0.139366 1.00 0.4749
Ne Ne393 1 0.150637 0.810975 0.093007 1.00 0.4628
Ne Ne394 1 0.203024 0.760021 0.100960 1.00 0.4509
Ne Ne395 1 0.033431 0.875564 0.115437 1.00 0.6514
Ne Ne396 1 0.015723 0.947213 0.113890 1.00 0.5615
Ne Ne397 1 0.280722 0.857333 0.050018 1.00 0.7002
Ne Ne398 1 0.221169 0.804322 0.088098 1.00 0.5340
Ne Ne399 1 0.225052 0.891340 0.024184 1.00 0.5991
Ne Ne400 1 0.305229 0.737714 0.011658 1.00 0.4321
Ne Ne401 1 0.398437 0.958062 0.123968 1.00 0.9624
Ne Ne402 1 0.385936 0.926683 0.153849 1.00 0.9181
Ne Ne403 1 0.340569 0.902806 0.066659 1.00 0.7878
Ne Ne404 1 0.417258 0.917161 0.087967 1.00 0.9287
Ne Ne405 1 0.256602 0.955918 0.021855 1.00 0.5303
Ne Ne406 1 0.340569 0.902806 0.066659 1.00 0.7878
Ne Ne407 1 0.280722 0.857333 0.050018 1.00 0.7002
Ne Ne408 1 0.347072 0.896324 0.058415 1.00 0.7867
Ne Ne409 1 0.384759 0.934402 0.169996 1.00 0.9251
Ne Ne410 1 0.389965 0.946537 0.156386 1.00 0.9163
Ne Ne411 1 0.389965 0.946537 0.156386 1.00 0.9163
Ne Ne412 1 0.398437 0.958062 0.123968 1.00 0.9624
Ne Ne413 1 0.041510 0.856064 0.075261 1.00 0.8165
Ne Ne414 1 0.014712 0.170261 0.066111 1.00 0.9278
Ne Ne415 1 0.168848 0.153359 0.015871 1.00 0.5912
Ne Ne416 1 0.035330 0.151275 0.023892 1.00 1.0309
Ne Ne417 1 0.014712 0.170261 0.066111 1.00 0.9278
Ne Ne418 1 0.052961 0.209240 0.145278 1.00 0.5941
Ne Ne419 1 0.014712 0.170261 0.066111 1.00 0.9278
Ne Ne420 1 0.179006 0.947429 0.258312 1.00 0.5165
Ne Ne421 1 0.179794 0.854625 0.240732 1.00 0.6604
Ne Ne422 1 0.273688 0.040549 0.270908 1.00 0.7943
Ne Ne423 1 0.325782 0.004050 0.227167 1.00 0.6498
Ne Ne424 1 0.264256 0.080382 0.269424 1.00 0.7668
Ne Ne425 1 0.375710 0.084279 0.285873 1.00 0.5412
Ne Ne426 1 0.273688 0.040549 0.270908 1.00 0.7943
Ne Ne427 1 0.242647 0.038074 0.279776 1.00 0.7928
Ne Ne428 1 0.296323 0.496428 0.004361 1.00 0.6610
Ne Ne429 1 0.355849 0.401054 0.061535 1.00 0.6084
Ne Ne430 1 0.359807 0.392124 0.072097 1.00 0.6153
Ne Ne431 1 0.243398 0.455918 0.978145 1.00 0.5303
Ne Ne432 1 0.219278 0.357333 0.949982 1.00 0.7002
Ne Ne433 1 0.152928 0.396324 0.941585 1.00 0.7867
Ne Ne434 1 0.159431 0.402806 0.933341 1.00 0.7878
Ne Ne435 1 0.996758 0.328790 0.087941 1.00 0.5846
Ne Ne436 1 0.989735 0.473568 0.087775 1.00 0.7760
Ne Ne437 1 0.965937 0.469363 0.108639 1.00 0.7843
Ne Ne438 1 0.355849 0.401054 0.061535 1.00 0.6084
Ne Ne439 1 0.296323 0.496428 0.004361 1.00 0.6610
Ne Ne440 1 0.338352 0.446845 0.007472 1.00 0.7791
Ne Ne441 1 0.194771 0.237714 0.988342 1.00 0.4321
Ne Ne442 1 0.219278 0.357333 0.949982 1.00 0.7002
Ne Ne443 1 0.274948 0.391340 0.975816 1.00 0.5991
Ne Ne444 1 0.278831 0.304322 0.911902 1.00 0.5340
Ne Ne445 1 0.152928 0.396324 0.941585 1.00 0.7867
Ne Ne446 1 0.047367 0.274447 0.985122 1.00 0.7895
Ne Ne447 1 0.058456 0.387906 0.949409 1.00 0.9960
Ne Ne448 1 0.257353 0.461926 0.220224 1.00 0.7928
Ne Ne449 1 0.226312 0.459451 0.229092 1.00 0.7943
Ne Ne450 1 0.254577 0.570085 0.240589 1.00 0.6823
Ne Ne451 1 0.239218 0.426420 0.228912 1.00 0.7658
Ne Ne452 1 0.257353 0.461926 0.220224 1.00 0.7928
Ne Ne453 1 0.321628 0.477963 0.227556 1.00 0.6147
Ne Ne454 1 0.530671 0.365432 0.164005 1.00 0.5019
Ne Ne455 1 0.555364 0.323440 0.194109 1.00 0.5994
Ne Ne456 1 0.560998 0.203109 0.188422 1.00 0.5894
Ne Ne457 1 0.531139 0.090857 0.218565 1.00 0.6761
Ne Ne458 1 0.521679 0.085526 0.159636 1.00 0.6026
Ne Ne459 1 0.624290 0.084279 0.214127 1.00 0.5412
Ne Ne460 1 0.455923 0.011274 0.219400 1.00 0.6445
Ne Ne461 1 0.531139 0.090857 0.218565 1.00 0.6761
Ne Ne462 1 0.468861 0.090857 0.281435 1.00 0.6761
Ne Ne463 1 0.544077 0.011274 0.280600 1.00 0.6445
Ne Ne464 1 0.439002 0.203109 0.311578 1.00 0.5894
Ne Ne465 1 0.444636 0.323440 0.305891 1.00 0.5994
Ne Ne466 1 0.344647 0.263592 0.306602 1.00 0.4495
Ne Ne467 1 0.447039 0.290760 0.354722 1.00 0.5941
Ne Ne468 1 0.514712 0.329739 0.066111 1.00 0.9278
Ne Ne469 1 0.359807 0.392124 0.072097 1.00 0.6153
Ne Ne470 1 0.487544 0.438770 0.111427 1.00 0.7644
Ne Ne471 1 0.483802 0.406843 0.059061 1.00 1.0473
Ne Ne472 1 0.552961 0.290760 0.145278 1.00 0.5941
Ne Ne473 1 0.555364 0.323440 0.194109 1.00 0.5994
Ne Ne474 1 0.560998 0.203109 0.188422 1.00 0.5894
Ne Ne475 1 0.655353 0.263592 0.193398 1.00 0.4495
Ne Ne476 1 0.444636 0.323440 0.305891 1.00 0.5994
Ne Ne477 1 0.469329 0.365432 0.335995 1.00 0.5019
Ne Ne478 1 0.375710 0.084279 0.285873 1.00 0.5412
Ne Ne479 1 0.468861 0.090857 0.281435 1.00 0.6761
Ne Ne480 1 0.439002 0.203109 0.311578 1.00 0.5894
Ne Ne481 1 0.478321 0.085526 0.340364 1.00 0.6026
Ne Ne482 1 0.321628 0.477963 0.227556 1.00 0.6147
Ne Ne483 1 0.320994 0.552571 0.241688 1.00 0.5165
Ne Ne484 1 0.487544 0.438770 0.111427 1.00 0.7644
Ne Ne485 1 0.530671 0.365432 0.164005 1.00 0.5019
Ne Ne486 1 0.515723 0.552787 0.113890 1.00 0.5615
Ne Ne487 1 0.521679 0.085526 0.159636 1.00 0.6026
Ne Ne488 1 0.465937 0.030637 0.108639 1.00 0.7843
Ne Ne489 1 0.496758 0.171210 0.087941 1.00 0.5846
Ne Ne490 1 0.489735 0.026432 0.087775 1.00 0.7760
Ne Ne491 1 0.496758 0.171210 0.087941 1.00 0.5846
Ne Ne492 1 0.514712 0.329739 0.066111 1.00 0.9278
Ne Ne493 1 0.552961 0.290760 0.145278 1.00 0.5941
Ne Ne494 1 0.514712 0.329739 0.066111 1.00 0.9278
Ne Ne495 1 0.512456 0.438770 0.388573 1.00 0.7644
Ne Ne496 1 0.469329 0.365432 0.335995 1.00 0.5019
Ne Ne497 1 0.484277 0.552787 0.386110 1.00 0.5615
Ne Ne498 1 0.786731 0.286453 0.291316 1.00 0.4942
Ne Ne499 1 0.724299 0.308791 0.222927 1.00 0.4547
Ne Ne500 1 0.760782 0.426420 0.271088 1.00 0.7658
Ne Ne501 1 0.764256 0.419618 0.269424 1.00 0.7668
Ne Ne502 1 0.478321 0.085526 0.340364 1.00 0.6026
Ne Ne503 1 0.534063 0.030637 0.391361 1.00 0.7843
Ne Ne504 1 0.503242 0.171210 0.412059 1.00 0.5846
Ne Ne505 1 0.510265 0.026432 0.412225 1.00 0.7760
Ne Ne506 1 0.655353 0.263592 0.193398 1.00 0.4495
Ne Ne507 1 0.724299 0.308791 0.222927 1.00 0.4547
Ne Ne508 1 0.713269 0.213547 0.208684 1.00 0.4942
Ne Ne509 1 0.503242 0.171210 0.412059 1.00 0.5846
Ne Ne510 1 0.485288 0.329739 0.433889 1.00 0.9278
Ne Ne511 1 0.447039 0.290760 0.354722 1.00 0.5941
Ne Ne512 1 0.485288 0.329739 0.433889 1.00 0.9278
Ne Ne513 1 0.610035 0.946537 0.343614 1.00 0.9163
Ne Ne514 1 0.601563 0.958062 0.376032 1.00 0.9624
Ne Ne515 1 0.775701 0.191209 0.277073 1.00 0.4547
Ne Ne516 1 0.786731 0.286453 0.291316 1.00 0.4942
Ne Ne517 1 0.844647 0.236408 0.306602 1.00 0.4495
Ne Ne518 1 0.735744 0.080382 0.230576 1.00 0.7668
Ne Ne519 1 0.713269 0.213547 0.208684 1.00 0.4942
Ne Ne520 1 0.775701 0.191209 0.277073 1.00 0.4547
Ne Ne521 1 0.739218 0.073580 0.228912 1.00 0.7658
Ne Ne522 1 0.760782 0.426420 0.271088 1.00 0.7658
Ne Ne523 1 0.678372 0.477963 0.272444 1.00 0.6147
Ne Ne524 1 0.742647 0.461926 0.279776 1.00 0.7928
Ne Ne525 1 0.485288 0.329739 0.433889 1.00 0.9278
Ne Ne526 1 0.640193 0.392124 0.427903 1.00 0.6153
Ne Ne527 1 0.512456 0.438770 0.388573 1.00 0.7644
Ne Ne528 1 0.516198 0.406843 0.440939 1.00 1.0473
Ne Ne529 1 0.640193 0.392124 0.427903 1.00 0.6153
Ne Ne530 1 0.644151 0.401054 0.438465 1.00 0.6084
Ne Ne531 1 0.624290 0.084279 0.214127 1.00 0.5412
Ne Ne532 1 0.735744 0.080382 0.230576 1.00 0.7668
Ne Ne533 1 0.674218 0.004050 0.272833 1.00 0.6498
Ne Ne534 1 0.726312 0.040549 0.229092 1.00 0.7943
Ne Ne535 1 0.610035 0.946537 0.343614 1.00 0.9163
Ne Ne536 1 0.615241 0.934402 0.330004 1.00 0.9251
Ne Ne537 1 0.678372 0.477963 0.272444 1.00 0.6147
Ne Ne538 1 0.679006 0.552571 0.258312 1.00 0.5165
Ne Ne539 1 0.349363 0.310975 0.906993 1.00 0.4628
Ne Ne540 1 0.296976 0.260021 0.899040 1.00 0.4509
Ne Ne541 1 0.278831 0.304322 0.911902 1.00 0.5340
Ne Ne542 1 0.280098 0.296027 0.860634 1.00 0.4749
Ne Ne543 1 0.458490 0.356064 0.924739 1.00 0.8165
Ne Ne544 1 0.498169 0.256743 0.933426 1.00 0.6491
Ne Ne545 1 0.349363 0.310975 0.906993 1.00 0.4628
Ne Ne546 1 0.466569 0.375564 0.884563 1.00 0.6514
Ne Ne547 1 0.535330 0.348725 0.023892 1.00 1.0309
Ne Ne548 1 0.481599 0.456969 0.000447 1.00 1.2151
Ne Ne549 1 0.483802 0.406843 0.059061 1.00 1.0473
Ne Ne550 1 0.510668 0.498380 0.008179 1.00 1.1942
Ne Ne551 1 0.296976 0.260021 0.899040 1.00 0.4509
Ne Ne552 1 0.558456 0.112094 0.949409 1.00 0.9960
Ne Ne553 1 0.547367 0.225553 0.985122 1.00 0.7895
Ne Ne554 1 0.652928 0.103676 0.941585 1.00 0.7867
Ne Ne555 1 0.502733 0.013574 0.938899 1.00 0.8229
Ne Ne556 1 0.502733 0.013574 0.938899 1.00 0.8229
Ne Ne557 1 0.498169 0.256743 0.933426 1.00 0.6491
Ne Ne558 1 0.558456 0.112094 0.949409 1.00 0.9960
Ne Ne559 1 0.582742 0.082839 0.912033 1.00 0.9287
Ne Ne560 1 0.497267 0.986426 0.061101 1.00 0.8229
Ne Ne561 1 0.417258 0.917161 0.087967 1.00 0.9287
Ne Ne562 1 0.441544 0.887906 0.050591 1.00 0.9960
Ne Ne563 1 0.501831 0.743257 0.066574 1.00 0.6491
Ne Ne564 1 0.441544 0.887906 0.050591 1.00 0.9960
Ne Ne565 1 0.347072 0.896324 0.058415 1.00 0.7867
Ne Ne566 1 0.452633 0.774447 0.014878 1.00 0.7895
Ne Ne567 1 0.458490 0.356064 0.924739 1.00 0.8165
Ne Ne568 1 0.489332 0.501620 0.991821 1.00 1.1942
Ne Ne569 1 0.497267 0.986426 0.061101 1.00 0.8229
Ne Ne570 1 0.535330 0.348725 0.023892 1.00 1.0309
Ne Ne571 1 0.514712 0.329739 0.066111 1.00 0.9278
Ne Ne572 1 0.668848 0.346641 0.015871 1.00 0.5912
Ne Ne573 1 0.889965 0.553463 0.156386 1.00 0.9163
Ne Ne574 1 0.825782 0.495949 0.227167 1.00 0.6498
Ne Ne575 1 0.955923 0.488726 0.219400 1.00 0.6445
Ne Ne576 1 0.884759 0.565598 0.169996 1.00 0.9251
Ne Ne577 1 0.821628 0.022037 0.227556 1.00 0.6147
Ne Ne578 1 0.739218 0.073580 0.228912 1.00 0.7658
Ne Ne579 1 0.757353 0.038074 0.220224 1.00 0.7928
Ne Ne580 1 0.875710 0.415721 0.285873 1.00 0.5412
Ne Ne581 1 0.825782 0.495949 0.227167 1.00 0.6498
Ne Ne582 1 0.764256 0.419618 0.269424 1.00 0.7668
Ne Ne583 1 0.773688 0.459451 0.270908 1.00 0.7943
Ne Ne584 1 0.965937 0.469363 0.108639 1.00 0.7843
Ne Ne585 1 0.889965 0.553463 0.156386 1.00 0.9163
Ne Ne586 1 0.898437 0.541938 0.123968 1.00 0.9624
Ne Ne587 1 0.821628 0.022037 0.227556 1.00 0.6147
Ne Ne588 1 0.725052 0.608660 0.024184 1.00 0.5991
Ne Ne589 1 0.721169 0.695678 0.088098 1.00 0.5340
Ne Ne590 1 0.780722 0.642667 0.050018 1.00 0.7002
Ne Ne591 1 0.805229 0.762286 0.011658 1.00 0.4321
Ne Ne592 1 0.780722 0.642667 0.050018 1.00 0.7002
Ne Ne593 1 0.840569 0.597194 0.066659 1.00 0.7878
Ne Ne594 1 0.756602 0.544082 0.021855 1.00 0.5303
Ne Ne595 1 0.847072 0.603676 0.058415 1.00 0.7867
Ne Ne596 1 0.679794 0.645375 0.240732 1.00 0.6604
Ne Ne597 1 0.679006 0.552571 0.258312 1.00 0.5165
Ne Ne598 1 0.510668 0.498380 0.008179 1.00 1.1942
Ne Ne599 1 0.541510 0.643936 0.075260 1.00 0.8165
Ne Ne600 1 0.745649 0.681231 0.229246 1.00 0.8239
Ne Ne601 1 0.808413 0.641709 0.199097 1.00 0.7069
Ne Ne602 1 0.719902 0.703973 0.139366 1.00 0.4749
Ne Ne603 1 0.760010 0.757329 0.240969 1.00 0.7531
Ne Ne604 1 0.541510 0.643936 0.075260 1.00 0.8165
Ne Ne605 1 0.533431 0.624436 0.115437 1.00 0.6514
Ne Ne606 1 0.650637 0.689025 0.093007 1.00 0.4628
Ne Ne607 1 0.501831 0.743257 0.066574 1.00 0.6491
Ne Ne608 1 0.683072 0.410731 0.007608 1.00 0.5252
Ne Ne609 1 0.668848 0.346641 0.015871 1.00 0.5912
Ne Ne610 1 0.533431 0.624436 0.115437 1.00 0.6514
Ne Ne611 1 0.515723 0.552787 0.113890 1.00 0.5615
Ne Ne612 1 0.650637 0.689025 0.093007 1.00 0.4628
Ne Ne613 1 0.719902 0.703973 0.139366 1.00 0.4749
Ne Ne614 1 0.721169 0.695678 0.088098 1.00 0.5340
Ne Ne615 1 0.703024 0.739979 0.100960 1.00 0.4509
Ne Ne616 1 0.703677 0.503572 0.995639 1.00 0.6610
Ne Ne617 1 0.703677 0.503572 0.995639 1.00 0.6610
Ne Ne618 1 0.661648 0.553155 0.992528 1.00 0.7791
Ne Ne619 1 0.644151 0.598946 0.938465 1.00 0.6084
Ne Ne620 1 0.745423 0.570085 0.259411 1.00 0.6823
Ne Ne621 1 0.745649 0.681231 0.229246 1.00 0.8239
Ne Ne622 1 0.679794 0.645375 0.240732 1.00 0.6604
Ne Ne623 1 0.739990 0.742671 0.259031 1.00 0.7531
Ne Ne624 1 0.742647 0.461926 0.279776 1.00 0.7928
Ne Ne625 1 0.773688 0.459451 0.270908 1.00 0.7943
Ne Ne626 1 0.745423 0.570085 0.259411 1.00 0.6823
Ne Ne627 1 0.898437 0.541938 0.123968 1.00 0.9624
Ne Ne628 1 0.840569 0.597194 0.066659 1.00 0.7878
Ne Ne629 1 0.885936 0.573317 0.153849 1.00 0.9181
Ne Ne630 1 0.917258 0.582839 0.087967 1.00 0.9287
Ne Ne631 1 0.885936 0.573317 0.153849 1.00 0.9181
Ne Ne632 1 0.808413 0.641709 0.199097 1.00 0.7069
Ne Ne633 1 0.884759 0.565598 0.169996 1.00 0.9251
Ne Ne634 1 0.934507 0.732823 0.204532 1.00 0.4929
Ne Ne635 1 0.778831 0.195678 0.911902 1.00 0.5340
Ne Ne636 1 0.796976 0.239979 0.899040 1.00 0.4509
Ne Ne637 1 0.849363 0.189025 0.906993 1.00 0.4628
Ne Ne638 1 0.780098 0.203973 0.860634 1.00 0.4749
Ne Ne639 1 0.058456 0.387906 0.949409 1.00 0.9960
Ne Ne640 1 0.002733 0.486426 0.938899 1.00 0.8229
Ne Ne641 1 0.082742 0.417161 0.912033 1.00 0.9287
Ne Ne642 1 0.847072 0.603676 0.058415 1.00 0.7867
Ne Ne643 1 0.941544 0.612094 0.050591 1.00 0.9960
Ne Ne644 1 0.952633 0.725553 0.014878 1.00 0.7895
Ne Ne645 1 0.849363 0.189025 0.906993 1.00 0.4628
Ne Ne646 1 0.998169 0.243257 0.933426 1.00 0.6491
Ne Ne647 1 0.958490 0.143936 0.924739 1.00 0.8165
Ne Ne648 1 0.966569 0.124436 0.884563 1.00 0.6514
Ne Ne649 1 0.796976 0.239979 0.899040 1.00 0.4509
Ne Ne650 1 0.997267 0.513574 0.061101 1.00 0.8229
Ne Ne651 1 0.941544 0.612094 0.050591 1.00 0.9960
Ne Ne652 1 0.917258 0.582839 0.087967 1.00 0.9287
Ne Ne653 1 0.958490 0.143936 0.924739 1.00 0.8165
Ne Ne654 1 0.774948 0.108660 0.975816 1.00 0.5991
Ne Ne655 1 0.694771 0.262286 0.988342 1.00 0.4321
Ne Ne656 1 0.778831 0.195678 0.911902 1.00 0.5340
Ne Ne657 1 0.719278 0.142667 0.949982 1.00 0.7002
Ne Ne658 1 0.743398 0.044082 0.978145 1.00 0.5303
Ne Ne659 1 0.652928 0.103676 0.941585 1.00 0.7867
Ne Ne660 1 0.719278 0.142667 0.949982 1.00 0.7002
Ne Ne661 1 0.659431 0.097194 0.933341 1.00 0.7878
Ne Ne662 1 0.726312 0.040549 0.229092 1.00 0.7943
Ne Ne663 1 0.757353 0.038074 0.220224 1.00 0.7928
Ne Ne664 1 0.203024 0.760021 0.100960 1.00 0.4509
Ne Ne665 1 0.065493 0.732823 0.295468 1.00 0.4929
Ne Ne666 1 0.934507 0.732823 0.204532 1.00 0.4929
Ne Ne667 1 0.191587 0.641709 0.300903 1.00 0.7069
Ne Ne668 1 0.065493 0.732823 0.295468 1.00 0.4929
Ne Ne669 1 0.115241 0.565598 0.330004 1.00 0.9251
Ne Ne670 1 0.114064 0.573317 0.346151 1.00 0.9181
Ne Ne671 1 0.239990 0.757329 0.259031 1.00 0.7531
Ne Ne672 1 0.191587 0.641709 0.300903 1.00 0.7069
Ne Ne673 1 0.254351 0.681231 0.270754 1.00 0.8239
Ne Ne674 1 0.280098 0.703973 0.360634 1.00 0.4749
Ne Ne675 1 0.254351 0.681231 0.270754 1.00 0.8239
Ne Ne676 1 0.254577 0.570085 0.240589 1.00 0.6823
Ne Ne677 1 0.260010 0.742671 0.240969 1.00 0.7531
Ne Ne678 1 0.320206 0.645375 0.259268 1.00 0.6604
Ne Ne679 1 0.434507 0.767177 0.204532 1.00 0.4929
Ne Ne680 1 0.565493 0.767177 0.295468 1.00 0.4929
Ne Ne681 1 0.320994 0.552571 0.241688 1.00 0.5165
Ne Ne682 1 0.320206 0.645375 0.259268 1.00 0.6604
Ne Ne683 1 0.484277 0.552787 0.386110 1.00 0.5615
Ne Ne684 1 0.466569 0.624436 0.384563 1.00 0.6514
Ne Ne685 1 0.331152 0.653359 0.984129 1.00 0.5912
Ne Ne686 1 0.316928 0.589269 0.992392 1.00 0.5252
Ne Ne687 1 0.464670 0.651275 0.976108 1.00 1.0309
Ne Ne688 1 0.331152 0.653359 0.984129 1.00 0.5912
Ne Ne689 1 0.485288 0.670261 0.933889 1.00 0.9278
Ne Ne690 1 0.489332 0.501620 0.991821 1.00 1.1942
Ne Ne691 1 0.464670 0.651275 0.976108 1.00 1.0309
Ne Ne692 1 0.518401 0.543031 0.999552 1.00 1.2151
Ne Ne693 1 0.516198 0.593157 0.940939 1.00 1.0473
Ne Ne694 1 0.691587 0.858291 0.300903 1.00 0.7069
Ne Ne695 1 0.739990 0.742671 0.259031 1.00 0.7531
Ne Ne696 1 0.754351 0.818769 0.270754 1.00 0.8239
Ne Ne697 1 0.780098 0.796027 0.360634 1.00 0.4749
Ne Ne698 1 0.703024 0.739979 0.100960 1.00 0.4509
Ne Ne699 1 0.754351 0.818769 0.270754 1.00 0.8239
Ne Ne700 1 0.760010 0.757329 0.240969 1.00 0.7531
Ne Ne701 1 0.754577 0.929915 0.240589 1.00 0.6823
Ne Ne702 1 0.820206 0.854625 0.259268 1.00 0.6604
Ne Ne703 1 0.615241 0.934402 0.330004 1.00 0.9251
Ne Ne704 1 0.565493 0.767177 0.295468 1.00 0.4929
Ne Ne705 1 0.691587 0.858291 0.300903 1.00 0.7069
Ne Ne706 1 0.614064 0.926683 0.346151 1.00 0.9181
Ne Ne707 1 0.601563 0.958062 0.376032 1.00 0.9624
Ne Ne708 1 0.582742 0.917161 0.412033 1.00 0.9287
Ne Ne709 1 0.614064 0.926683 0.346151 1.00 0.9181
Ne Ne710 1 0.659431 0.902806 0.433341 1.00 0.7878
Ne Ne711 1 0.349363 0.689025 0.406993 1.00 0.4628
Ne Ne712 1 0.296976 0.739979 0.399040 1.00 0.4509
Ne Ne713 1 0.280098 0.703973 0.360634 1.00 0.4749
Ne Ne714 1 0.278831 0.695678 0.411902 1.00 0.5340
Ne Ne715 1 0.296976 0.739979 0.399040 1.00 0.4509
Ne Ne716 1 0.502733 0.986426 0.438899 1.00 0.8229
Ne Ne717 1 0.498169 0.743257 0.433426 1.00 0.6491
Ne Ne718 1 0.582742 0.917161 0.412033 1.00 0.9287
Ne Ne719 1 0.558456 0.887906 0.449409 1.00 0.9960
Ne Ne720 1 0.502733 0.986426 0.438899 1.00 0.8229
Ne Ne721 1 0.466569 0.624436 0.384563 1.00 0.6514
Ne Ne722 1 0.498169 0.743257 0.433426 1.00 0.6491
Ne Ne723 1 0.349363 0.689025 0.406993 1.00 0.4628
Ne Ne724 1 0.458490 0.643936 0.424740 1.00 0.8165
Ne Ne725 1 0.820994 0.947429 0.241688 1.00 0.5165
Ne Ne726 1 0.820206 0.854625 0.259268 1.00 0.6604
Ne Ne727 1 0.984277 0.947213 0.386110 1.00 0.5615
Ne Ne728 1 0.966569 0.875564 0.384563 1.00 0.6514
Ne Ne729 1 0.816928 0.910731 0.992392 1.00 0.5252
Ne Ne730 1 0.831152 0.846641 0.984129 1.00 0.5912
Ne Ne731 1 0.831152 0.846641 0.984129 1.00 0.5912
Ne Ne732 1 0.964670 0.848725 0.976108 1.00 1.0309
Ne Ne733 1 0.985288 0.829739 0.933889 1.00 0.9278
Ne Ne734 1 0.101563 0.541938 0.376032 1.00 0.9624
Ne Ne735 1 0.114064 0.573317 0.346151 1.00 0.9181
Ne Ne736 1 0.082742 0.582839 0.412033 1.00 0.9287
Ne Ne737 1 0.159431 0.597194 0.433341 1.00 0.7878
Ne Ne738 1 0.780098 0.796027 0.360634 1.00 0.4749
Ne Ne739 1 0.796976 0.760021 0.399040 1.00 0.4509
Ne Ne740 1 0.849363 0.810975 0.406993 1.00 0.4628
Ne Ne741 1 0.778831 0.804322 0.411902 1.00 0.5340
Ne Ne742 1 0.796976 0.760021 0.399040 1.00 0.4509
Ne Ne743 1 0.082742 0.582839 0.412033 1.00 0.9287
Ne Ne744 1 0.002733 0.513574 0.438899 1.00 0.8229
Ne Ne745 1 0.058456 0.612094 0.449409 1.00 0.9960
Ne Ne746 1 0.849363 0.810975 0.406993 1.00 0.4628
Ne Ne747 1 0.998169 0.756743 0.433426 1.00 0.6491
Ne Ne748 1 0.966569 0.875564 0.384563 1.00 0.6514
Ne Ne749 1 0.958490 0.856064 0.424740 1.00 0.8165
Ne Ne750 1 0.977180 0.461608 0.481920 1.00 0.6999
Ne Ne751 1 0.203024 0.239979 0.600960 1.00 0.4509
Ne Ne752 1 0.278831 0.695678 0.411902 1.00 0.5340
Ne Ne753 1 0.219278 0.642667 0.449982 1.00 0.7002
Ne Ne754 1 0.274948 0.608660 0.475816 1.00 0.5991
Ne Ne755 1 0.194771 0.762286 0.488342 1.00 0.4321
Ne Ne756 1 0.219278 0.642667 0.449982 1.00 0.7002
Ne Ne757 1 0.159431 0.597194 0.433341 1.00 0.7878
Ne Ne758 1 0.243398 0.544082 0.478145 1.00 0.5303
Ne Ne759 1 0.152928 0.603676 0.441585 1.00 0.7867
Ne Ne760 1 0.274948 0.608660 0.475816 1.00 0.5991
Ne Ne761 1 0.296323 0.503572 0.504361 1.00 0.6610
Ne Ne762 1 0.338352 0.553155 0.507472 1.00 0.7791
Ne Ne763 1 0.355849 0.598946 0.561535 1.00 0.6084
Ne Ne764 1 0.243398 0.544082 0.478145 1.00 0.5303
Ne Ne765 1 0.316928 0.410731 0.492392 1.00 0.5252
Ne Ne766 1 0.296323 0.503572 0.504361 1.00 0.6610
Ne Ne767 1 0.316928 0.410731 0.492392 1.00 0.5252
Ne Ne768 1 0.331152 0.346641 0.484129 1.00 0.5912
Ne Ne769 1 0.305229 0.262286 0.511658 1.00 0.4321
Ne Ne770 1 0.464670 0.348725 0.476108 1.00 1.0309
Ne Ne771 1 0.331152 0.346641 0.484129 1.00 0.5912
Ne Ne772 1 0.485288 0.329739 0.433889 1.00 0.9278
Ne Ne773 1 0.452633 0.225553 0.514878 1.00 0.7895
Ne Ne774 1 0.338352 0.553155 0.507472 1.00 0.7791
Ne Ne775 1 0.489332 0.498380 0.491821 1.00 1.1942
Ne Ne776 1 0.458490 0.643936 0.424740 1.00 0.8165
Ne Ne777 1 0.481599 0.543031 0.500448 1.00 1.2151
Ne Ne778 1 0.489332 0.498380 0.491821 1.00 1.1942
Ne Ne779 1 0.464670 0.348725 0.476108 1.00 1.0309
Ne Ne780 1 0.516198 0.406843 0.440939 1.00 1.0473
Ne Ne781 1 0.518401 0.456969 0.499552 1.00 1.2151
Ne Ne782 1 0.022820 0.538392 0.518080 1.00 0.6999
Ne Ne783 1 0.152928 0.603676 0.441585 1.00 0.7867
Ne Ne784 1 0.058456 0.612094 0.449409 1.00 0.9960
Ne Ne785 1 0.047367 0.725553 0.485122 1.00 0.7895
Ne Ne786 1 0.997267 0.486426 0.561101 1.00 0.8229
Ne Ne787 1 0.941544 0.387906 0.550591 1.00 0.9960
Ne Ne788 1 0.917258 0.417161 0.587967 1.00 0.9287
Ne Ne789 1 0.144151 0.098946 0.438465 1.00 0.6084
Ne Ne790 1 0.225052 0.108660 0.524184 1.00 0.5991
Ne Ne791 1 0.161648 0.053155 0.492528 1.00 0.7791
Ne Ne792 1 0.203677 0.003572 0.495639 1.00 0.6610
Ne Ne793 1 0.985288 0.170261 0.433889 1.00 0.9278
Ne Ne794 1 0.964670 0.151275 0.476108 1.00 1.0309
Ne Ne795 1 0.952633 0.274447 0.514878 1.00 0.7895
Ne Ne796 1 0.831152 0.153359 0.484129 1.00 0.5912
Ne Ne797 1 0.977180 0.461608 0.481920 1.00 0.6999
Ne Ne798 1 0.952633 0.274447 0.514878 1.00 0.7895
Ne Ne799 1 0.941544 0.387906 0.550591 1.00 0.9960
Ne Ne800 1 0.847072 0.396324 0.558415 1.00 0.7867
Ne Ne801 1 0.022820 0.538392 0.518080 1.00 0.6999
Ne Ne802 1 0.018401 0.043031 0.499552 1.00 1.2151
Ne Ne803 1 0.016198 0.093157 0.440939 1.00 1.0473
Ne Ne804 1 0.161648 0.053155 0.492528 1.00 0.7791
Ne Ne805 1 0.041510 0.143936 0.575260 1.00 0.8165
Ne Ne806 1 0.018401 0.043031 0.499552 1.00 1.2151
Ne Ne807 1 0.221169 0.195678 0.588098 1.00 0.5340
Ne Ne808 1 0.203024 0.239979 0.600960 1.00 0.4509
Ne Ne809 1 0.150637 0.189024 0.593007 1.00 0.4628
Ne Ne810 1 0.219902 0.203973 0.639366 1.00 0.4749
Ne Ne811 1 0.150637 0.189024 0.593007 1.00 0.4628
Ne Ne812 1 0.001831 0.243257 0.566574 1.00 0.6491
Ne Ne813 1 0.041510 0.143936 0.575260 1.00 0.8165
Ne Ne814 1 0.033431 0.124436 0.615437 1.00 0.6514
Ne Ne815 1 0.225052 0.108660 0.524184 1.00 0.5991
Ne Ne816 1 0.305229 0.262286 0.511658 1.00 0.4321
Ne Ne817 1 0.221169 0.195678 0.588098 1.00 0.5340
Ne Ne818 1 0.280722 0.142667 0.550018 1.00 0.7002
Ne Ne819 1 0.477180 0.038392 0.481920 1.00 0.6999
Ne Ne820 1 0.452633 0.225553 0.514878 1.00 0.7895
Ne Ne821 1 0.347072 0.103676 0.558415 1.00 0.7867
Ne Ne822 1 0.441544 0.112094 0.550591 1.00 0.9960
Ne Ne823 1 0.256602 0.044082 0.521855 1.00 0.5303
Ne Ne824 1 0.203677 0.003572 0.495639 1.00 0.6610
Ne Ne825 1 0.256602 0.044082 0.521855 1.00 0.5303
Ne Ne826 1 0.347072 0.103676 0.558415 1.00 0.7867
Ne Ne827 1 0.280722 0.142667 0.550018 1.00 0.7002
Ne Ne828 1 0.340569 0.097194 0.566659 1.00 0.7878
Ne Ne829 1 0.359807 0.607876 0.572097 1.00 0.6153
Ne Ne830 1 0.355849 0.598946 0.561535 1.00 0.6084
Ne Ne831 1 0.515723 0.447213 0.613890 1.00 0.5615
Ne Ne832 1 0.533431 0.375564 0.615437 1.00 0.6514
Ne Ne833 1 0.320994 0.447429 0.741688 1.00 0.5165
Ne Ne834 1 0.321628 0.522037 0.727556 1.00 0.6147
Ne Ne835 1 0.385936 0.073317 0.653849 1.00 0.9181
Ne Ne836 1 0.434507 0.232823 0.704532 1.00 0.4929
Ne Ne837 1 0.308413 0.141709 0.699097 1.00 0.7069
Ne Ne838 1 0.384759 0.065598 0.669996 1.00 0.9251
Ne Ne839 1 0.510668 0.501620 0.508179 1.00 1.1942
Ne Ne840 1 0.481599 0.543031 0.500448 1.00 1.2151
Ne Ne841 1 0.483802 0.593157 0.559061 1.00 1.0473
Ne Ne842 1 0.535330 0.651275 0.523892 1.00 1.0309
Ne Ne843 1 0.434507 0.232823 0.704532 1.00 0.4929
Ne Ne844 1 0.308413 0.141709 0.699097 1.00 0.7069
Ne Ne845 1 0.260010 0.257329 0.740969 1.00 0.7531
Ne Ne846 1 0.219902 0.203973 0.639366 1.00 0.4749
Ne Ne847 1 0.245649 0.181231 0.729246 1.00 0.8239
Ne Ne848 1 0.320206 0.354625 0.759268 1.00 0.6604
Ne Ne849 1 0.320994 0.447429 0.741688 1.00 0.5165
Ne Ne850 1 0.321628 0.522037 0.727556 1.00 0.6147
Ne Ne851 1 0.257353 0.538074 0.720224 1.00 0.7928
Ne Ne852 1 0.239218 0.573580 0.728912 1.00 0.7659
Ne Ne853 1 0.533431 0.375564 0.615437 1.00 0.6514
Ne Ne854 1 0.501831 0.256743 0.566574 1.00 0.6491
Ne Ne855 1 0.541510 0.356064 0.575260 1.00 0.8165
Ne Ne856 1 0.650637 0.310975 0.593007 1.00 0.4628
Ne Ne857 1 0.541510 0.356064 0.575260 1.00 0.8165
Ne Ne858 1 0.518401 0.456969 0.499552 1.00 1.2151
Ne Ne859 1 0.510668 0.501620 0.508179 1.00 1.1942
Ne Ne860 1 0.661648 0.446845 0.492528 1.00 0.7791
Ne Ne861 1 0.257353 0.538074 0.720224 1.00 0.7928
Ne Ne862 1 0.254577 0.429915 0.740589 1.00 0.6823
Ne Ne863 1 0.226312 0.540549 0.729092 1.00 0.7943
Ne Ne864 1 0.254577 0.429915 0.740589 1.00 0.6823
Ne Ne865 1 0.260010 0.257329 0.740969 1.00 0.7531
Ne Ne866 1 0.320206 0.354625 0.759268 1.00 0.6604
Ne Ne867 1 0.254351 0.318769 0.770754 1.00 0.8239
Ne Ne868 1 0.441544 0.112094 0.550591 1.00 0.9960
Ne Ne869 1 0.501831 0.256743 0.566574 1.00 0.6491
Ne Ne870 1 0.417258 0.082839 0.587967 1.00 0.9287
Ne Ne871 1 0.497267 0.013574 0.561101 1.00 0.8229
Ne Ne872 1 0.417258 0.082839 0.587967 1.00 0.9287
Ne Ne873 1 0.385936 0.073317 0.653849 1.00 0.9181
Ne Ne874 1 0.340569 0.097194 0.566659 1.00 0.7878
Ne Ne875 1 0.398437 0.041938 0.623968 1.00 0.9624
Ne Ne876 1 0.483802 0.593157 0.559061 1.00 1.0473
Ne Ne877 1 0.359807 0.607876 0.572097 1.00 0.6153
Ne Ne878 1 0.487544 0.561230 0.611427 1.00 0.7644
Ne Ne879 1 0.514712 0.670261 0.566111 1.00 0.9278
Ne Ne880 1 0.487544 0.561230 0.611427 1.00 0.7644
Ne Ne881 1 0.515723 0.447213 0.613890 1.00 0.5615
Ne Ne882 1 0.530671 0.634568 0.664005 1.00 0.5019
Ne Ne883 1 0.743398 0.955918 0.478145 1.00 0.5303
Ne Ne884 1 0.796323 0.996428 0.504361 1.00 0.6610
Ne Ne885 1 0.497267 0.013574 0.561101 1.00 0.8229
Ne Ne886 1 0.659431 0.902806 0.433341 1.00 0.7878
Ne Ne887 1 0.743398 0.955918 0.478145 1.00 0.5303
Ne Ne888 1 0.652928 0.896324 0.441585 1.00 0.7867
Ne Ne889 1 0.719278 0.857333 0.449982 1.00 0.7002
Ne Ne890 1 0.805229 0.237714 0.511658 1.00 0.4321
Ne Ne891 1 0.816928 0.089269 0.492392 1.00 0.5252
Ne Ne892 1 0.831152 0.153359 0.484129 1.00 0.5912
Ne Ne893 1 0.725052 0.391340 0.524184 1.00 0.5991
Ne Ne894 1 0.644151 0.401054 0.438465 1.00 0.6084
Ne Ne895 1 0.661648 0.446845 0.492528 1.00 0.7791
Ne Ne896 1 0.703677 0.496428 0.495639 1.00 0.6610
Ne Ne897 1 0.558456 0.887906 0.449409 1.00 0.9960
Ne Ne898 1 0.652928 0.896324 0.441585 1.00 0.7867
Ne Ne899 1 0.522820 0.961608 0.518080 1.00 0.6999
Ne Ne900 1 0.547367 0.774447 0.485122 1.00 0.7895
Ne Ne901 1 0.721169 0.304322 0.588098 1.00 0.5340
Ne Ne902 1 0.805229 0.237714 0.511658 1.00 0.4321
Ne Ne903 1 0.725052 0.391340 0.524184 1.00 0.5991
Ne Ne904 1 0.780722 0.357333 0.550018 1.00 0.7002
Ne Ne905 1 0.703024 0.260021 0.600960 1.00 0.4509
Ne Ne906 1 0.650637 0.310975 0.593007 1.00 0.4628
Ne Ne907 1 0.703024 0.260021 0.600960 1.00 0.4509
Ne Ne908 1 0.721169 0.304322 0.588098 1.00 0.5340
Ne Ne909 1 0.719902 0.296027 0.639366 1.00 0.4749
Ne Ne910 1 0.778831 0.804322 0.411902 1.00 0.5340
Ne Ne911 1 0.774948 0.891340 0.475816 1.00 0.5991
Ne Ne912 1 0.719278 0.857333 0.449982 1.00 0.7002
Ne Ne913 1 0.694771 0.737714 0.488342 1.00 0.4321
Ne Ne914 1 0.774948 0.891340 0.475816 1.00 0.5991
Ne Ne915 1 0.838352 0.946845 0.507472 1.00 0.7791
Ne Ne916 1 0.796323 0.996428 0.504361 1.00 0.6610
Ne Ne917 1 0.855849 0.901054 0.561535 1.00 0.6084
Ne Ne918 1 0.838352 0.946845 0.507472 1.00 0.7791
Ne Ne919 1 0.958490 0.856064 0.424740 1.00 0.8165
Ne Ne920 1 0.981599 0.956969 0.500448 1.00 1.2151
Ne Ne921 1 0.934507 0.267177 0.704532 1.00 0.4929
Ne Ne922 1 0.033431 0.124436 0.615437 1.00 0.6514
Ne Ne923 1 0.015723 0.052787 0.613890 1.00 0.5615
Ne Ne924 1 0.754577 0.070085 0.740589 1.00 0.6823
Ne Ne925 1 0.820206 0.145375 0.759268 1.00 0.6604
Ne Ne926 1 0.760010 0.242671 0.740969 1.00 0.7531
Ne Ne927 1 0.754351 0.181231 0.770754 1.00 0.8239
Ne Ne928 1 0.757353 0.961926 0.720224 1.00 0.7928
Ne Ne929 1 0.726312 0.959451 0.729092 1.00 0.7943
Ne Ne930 1 0.821628 0.977963 0.727556 1.00 0.6147
Ne Ne931 1 0.855849 0.901054 0.561535 1.00 0.6084
Ne Ne932 1 0.859807 0.892124 0.572097 1.00 0.6153
Ne Ne933 1 0.757353 0.961926 0.720224 1.00 0.7928
Ne Ne934 1 0.821628 0.977963 0.727556 1.00 0.6147
Ne Ne935 1 0.739218 0.926420 0.728912 1.00 0.7659
Ne Ne936 1 0.820994 0.052571 0.741688 1.00 0.5165
Ne Ne937 1 0.820206 0.145375 0.759268 1.00 0.6604
Ne Ne938 1 0.847072 0.396324 0.558415 1.00 0.7867
Ne Ne939 1 0.780722 0.357333 0.550018 1.00 0.7002
Ne Ne940 1 0.840569 0.402806 0.566659 1.00 0.7878
Ne Ne941 1 0.756602 0.455918 0.521855 1.00 0.5303
Ne Ne942 1 0.808413 0.358291 0.699097 1.00 0.7069
Ne Ne943 1 0.934507 0.267177 0.704532 1.00 0.4929
Ne Ne944 1 0.885936 0.426683 0.653849 1.00 0.9181
Ne Ne945 1 0.884759 0.434402 0.669996 1.00 0.9251
Ne Ne946 1 0.987544 0.938770 0.611427 1.00 0.7644
Ne Ne947 1 0.987544 0.938770 0.611427 1.00 0.7644
Ne Ne948 1 0.859807 0.892124 0.572097 1.00 0.6153
Ne Ne949 1 0.983802 0.906843 0.559061 1.00 1.0473
Ne Ne950 1 0.983802 0.906843 0.559061 1.00 1.0473
Ne Ne951 1 0.981599 0.956969 0.500448 1.00 1.2151
Ne Ne952 1 0.719902 0.296027 0.639366 1.00 0.4749
Ne Ne953 1 0.760010 0.242671 0.740969 1.00 0.7531
Ne Ne954 1 0.808413 0.358291 0.699097 1.00 0.7069
Ne Ne955 1 0.745649 0.318769 0.729246 1.00 0.8239
Ne Ne956 1 0.840569 0.402806 0.566659 1.00 0.7878
Ne Ne957 1 0.885936 0.426683 0.653849 1.00 0.9181
Ne Ne958 1 0.917258 0.417161 0.587967 1.00 0.9287
Ne Ne959 1 0.898437 0.458062 0.623968 1.00 0.9624
Ne Ne960 1 0.703677 0.496428 0.495639 1.00 0.6610
Ne Ne961 1 0.756602 0.455918 0.521855 1.00 0.5303
Ne Ne962 1 0.683072 0.589269 0.507608 1.00 0.5252
Ne Ne963 1 0.242647 0.961926 0.779776 1.00 0.7928
Ne Ne964 1 0.273688 0.959451 0.770908 1.00 0.7943
Ne Ne965 1 0.224299 0.808791 0.722927 1.00 0.4547
Ne Ne966 1 0.155353 0.763592 0.693398 1.00 0.4495
Ne Ne967 1 0.213269 0.713547 0.708684 1.00 0.4942
Ne Ne968 1 0.264256 0.919618 0.769424 1.00 0.7668
Ne Ne969 1 0.260782 0.926420 0.771088 1.00 0.7658
Ne Ne970 1 0.224299 0.808791 0.722927 1.00 0.4547
Ne Ne971 1 0.286731 0.786453 0.791316 1.00 0.4942
Ne Ne972 1 0.179005 0.052571 0.758312 1.00 0.5165
Ne Ne973 1 0.179794 0.145375 0.740732 1.00 0.6604
Ne Ne974 1 0.052961 0.790760 0.645278 1.00 0.5941
Ne Ne975 1 0.155353 0.763592 0.693398 1.00 0.4495
Ne Ne976 1 0.055364 0.823440 0.694109 1.00 0.5994
Ne Ne977 1 0.060998 0.703109 0.688422 1.00 0.5894
Ne Ne978 1 0.168848 0.846641 0.515871 1.00 0.5912
Ne Ne979 1 0.183072 0.910731 0.507608 1.00 0.5252
Ne Ne980 1 0.194771 0.762286 0.488342 1.00 0.4321
Ne Ne981 1 0.178372 0.977963 0.772444 1.00 0.6147
Ne Ne982 1 0.260782 0.926420 0.771088 1.00 0.7658
Ne Ne983 1 0.242647 0.961926 0.779776 1.00 0.7928
Ne Ne984 1 0.389965 0.053463 0.656386 1.00 0.9163
Ne Ne985 1 0.384759 0.065598 0.669996 1.00 0.9251
Ne Ne986 1 0.245649 0.181231 0.729246 1.00 0.8239
Ne Ne987 1 0.179794 0.145375 0.740732 1.00 0.6604
Ne Ne988 1 0.245423 0.070085 0.759411 1.00 0.6823
Ne Ne989 1 0.239990 0.242671 0.759031 1.00 0.7531
Ne Ne990 1 0.014712 0.829739 0.566111 1.00 0.9278
Ne Ne991 1 0.052961 0.790760 0.645278 1.00 0.5941
Ne Ne992 1 0.014712 0.829739 0.566111 1.00 0.9278
Ne Ne993 1 0.325782 0.995949 0.727167 1.00 0.6498
Ne Ne994 1 0.273688 0.959451 0.770908 1.00 0.7943
Ne Ne995 1 0.264256 0.919618 0.769424 1.00 0.7668
Ne Ne996 1 0.375710 0.915721 0.785873 1.00 0.5412
Ne Ne997 1 0.398437 0.041938 0.623968 1.00 0.9624
Ne Ne998 1 0.389965 0.053463 0.656386 1.00 0.9163
Ne Ne999 1 0.030671 0.865432 0.664005 1.00 0.5019
Ne Ne1000 1 0.055364 0.823440 0.694109 1.00 0.5994
Ne Ne1001 1 0.178372 0.977963 0.772444 1.00 0.6147
Ne Ne1002 1 0.035330 0.848725 0.523892 1.00 1.0309
Ne Ne1003 1 0.168848 0.846641 0.515871 1.00 0.5912
Ne Ne1004 1 0.014712 0.829739 0.566111 1.00 0.9278
Ne Ne1005 1 0.047367 0.725553 0.485122 1.00 0.7895
Ne Ne1006 1 0.226312 0.540549 0.729092 1.00 0.7943
Ne Ne1007 1 0.235744 0.580382 0.730576 1.00 0.7668
Ne Ne1008 1 0.124290 0.584279 0.714127 1.00 0.5412
Ne Ne1009 1 0.174218 0.504050 0.772833 1.00 0.6498
Ne Ne1010 1 0.021679 0.585526 0.659636 1.00 0.6026
Ne Ne1011 1 0.124290 0.584279 0.714127 1.00 0.5412
Ne Ne1012 1 0.060998 0.703109 0.688422 1.00 0.5894
Ne Ne1013 1 0.031139 0.590857 0.718565 1.00 0.6761
Ne Ne1014 1 0.996758 0.671210 0.587941 1.00 0.5846
Ne Ne1015 1 0.989735 0.526432 0.587775 1.00 0.7760
Ne Ne1016 1 0.965937 0.530637 0.608639 1.00 0.7843
Ne Ne1017 1 0.213269 0.713547 0.708684 1.00 0.4942
Ne Ne1018 1 0.235744 0.580382 0.730576 1.00 0.7668
Ne Ne1019 1 0.239218 0.573580 0.728912 1.00 0.7659
Ne Ne1020 1 0.275701 0.691209 0.777073 1.00 0.4547
Ne Ne1021 1 0.668848 0.653359 0.515871 1.00 0.5912
Ne Ne1022 1 0.683072 0.589269 0.507608 1.00 0.5252
Ne Ne1023 1 0.694771 0.737714 0.488342 1.00 0.4321
Ne Ne1024 1 0.547367 0.774447 0.485122 1.00 0.7895
Ne Ne1025 1 0.535330 0.651275 0.523892 1.00 1.0309
Ne Ne1026 1 0.668848 0.653359 0.515871 1.00 0.5912
Ne Ne1027 1 0.514712 0.670261 0.566111 1.00 0.9278
Ne Ne1028 1 0.489735 0.973568 0.587775 1.00 0.7760
Ne Ne1029 1 0.465937 0.969363 0.608639 1.00 0.7843
Ne Ne1030 1 0.496758 0.828790 0.587941 1.00 0.5846
Ne Ne1031 1 0.521679 0.914474 0.659636 1.00 0.6026
Ne Ne1032 1 0.496758 0.828790 0.587941 1.00 0.5846
Ne Ne1033 1 0.514712 0.670261 0.566111 1.00 0.9278
Ne Ne1034 1 0.514712 0.670261 0.566111 1.00 0.9278
Ne Ne1035 1 0.552961 0.709240 0.645278 1.00 0.5941
Ne Ne1036 1 0.678372 0.522037 0.772444 1.00 0.6147
Ne Ne1037 1 0.679005 0.447429 0.758312 1.00 0.5165
Ne Ne1038 1 0.898437 0.458062 0.623968 1.00 0.9624
Ne Ne1039 1 0.889965 0.446537 0.656386 1.00 0.9163
Ne Ne1040 1 0.965937 0.530637 0.608639 1.00 0.7843
Ne Ne1041 1 0.679794 0.354625 0.740732 1.00 0.6604
Ne Ne1042 1 0.679005 0.447429 0.758312 1.00 0.5165
Ne Ne1043 1 0.825782 0.504051 0.727167 1.00 0.6498
Ne Ne1044 1 0.764256 0.580382 0.769424 1.00 0.7668
Ne Ne1045 1 0.773688 0.540549 0.770908 1.00 0.7943
Ne Ne1046 1 0.875710 0.584279 0.785873 1.00 0.5412
Ne Ne1047 1 0.655353 0.736408 0.693398 1.00 0.4495
Ne Ne1048 1 0.552961 0.709240 0.645278 1.00 0.5941
Ne Ne1049 1 0.555364 0.676560 0.694109 1.00 0.5994
Ne Ne1050 1 0.560998 0.796891 0.688422 1.00 0.5894
Ne Ne1051 1 0.760782 0.573580 0.771088 1.00 0.7658
Ne Ne1052 1 0.764256 0.580382 0.769424 1.00 0.7668
Ne Ne1053 1 0.724299 0.691209 0.722927 1.00 0.4547
Ne Ne1054 1 0.786731 0.713547 0.791316 1.00 0.4942
Ne Ne1055 1 0.724299 0.691209 0.722927 1.00 0.4547
Ne Ne1056 1 0.655353 0.736408 0.693398 1.00 0.4495
Ne Ne1057 1 0.713269 0.786453 0.708684 1.00 0.4942
Ne Ne1058 1 0.742647 0.538074 0.779776 1.00 0.7928
Ne Ne1059 1 0.760782 0.573580 0.771088 1.00 0.7658
Ne Ne1060 1 0.678372 0.522037 0.772444 1.00 0.6147
Ne Ne1061 1 0.745423 0.429915 0.759411 1.00 0.6823
Ne Ne1062 1 0.773688 0.540549 0.770908 1.00 0.7943
Ne Ne1063 1 0.742647 0.538074 0.779776 1.00 0.7928
Ne Ne1064 1 0.745649 0.318769 0.729246 1.00 0.8239
Ne Ne1065 1 0.745423 0.429915 0.759411 1.00 0.6823
Ne Ne1066 1 0.679794 0.354625 0.740732 1.00 0.6604
Ne Ne1067 1 0.739990 0.257329 0.759031 1.00 0.7531
Ne Ne1068 1 0.555364 0.676560 0.694109 1.00 0.5994
Ne Ne1069 1 0.530671 0.634568 0.664005 1.00 0.5019
Ne Ne1070 1 0.889965 0.446537 0.656386 1.00 0.9163
Ne Ne1071 1 0.825782 0.504051 0.727167 1.00 0.6498
Ne Ne1072 1 0.884759 0.434402 0.669996 1.00 0.9251
Ne Ne1073 1 0.955923 0.511274 0.719400 1.00 0.6445
Ne Ne1074 1 0.713269 0.786453 0.708684 1.00 0.4942
Ne Ne1075 1 0.739218 0.926420 0.728912 1.00 0.7659
Ne Ne1076 1 0.735744 0.919618 0.730576 1.00 0.7668
Ne Ne1077 1 0.775701 0.808791 0.777073 1.00 0.4547
Ne Ne1078 1 0.624290 0.915721 0.714127 1.00 0.5412
Ne Ne1079 1 0.735744 0.919618 0.730576 1.00 0.7668
Ne Ne1080 1 0.726312 0.959451 0.729092 1.00 0.7943
Ne Ne1081 1 0.674218 0.995950 0.772833 1.00 0.6498
Ne Ne1082 1 0.521679 0.914474 0.659636 1.00 0.6026
Ne Ne1083 1 0.560998 0.796891 0.688422 1.00 0.5894
Ne Ne1084 1 0.624290 0.915721 0.714127 1.00 0.5412
Ne Ne1085 1 0.531139 0.909143 0.718565 1.00 0.6761
Ne Ne1086 1 0.065493 0.267177 0.795468 1.00 0.4929
Ne Ne1087 1 0.191587 0.358291 0.800903 1.00 0.7069
Ne Ne1088 1 0.065493 0.267177 0.795468 1.00 0.4929
Ne Ne1089 1 0.114064 0.426683 0.846151 1.00 0.9181
Ne Ne1090 1 0.115241 0.434402 0.830004 1.00 0.9251
Ne Ne1091 1 0.280098 0.296027 0.860634 1.00 0.4749
Ne Ne1092 1 0.239990 0.242671 0.759031 1.00 0.7531
Ne Ne1093 1 0.191587 0.358291 0.800903 1.00 0.7069
Ne Ne1094 1 0.254351 0.318769 0.770754 1.00 0.8239
Ne Ne1095 1 0.966569 0.124436 0.884563 1.00 0.6514
Ne Ne1096 1 0.984277 0.052787 0.886110 1.00 0.5615
Ne Ne1097 1 0.159431 0.402806 0.933341 1.00 0.7878
Ne Ne1098 1 0.114064 0.426683 0.846151 1.00 0.9181
Ne Ne1099 1 0.082742 0.417161 0.912033 1.00 0.9287
Ne Ne1100 1 0.101563 0.458062 0.876032 1.00 0.9624
Ne Ne1101 1 0.174218 0.504050 0.772833 1.00 0.6498
Ne Ne1102 1 0.044077 0.511274 0.780600 1.00 0.6445
Ne Ne1103 1 0.115241 0.434402 0.830004 1.00 0.9251
Ne Ne1104 1 0.110035 0.446537 0.843614 1.00 0.9163
Ne Ne1105 1 0.044077 0.511274 0.780600 1.00 0.6445
Ne Ne1106 1 0.031139 0.590857 0.718565 1.00 0.6761
Ne Ne1107 1 0.469329 0.634568 0.835995 1.00 0.5019
Ne Ne1108 1 0.444636 0.676560 0.805891 1.00 0.5994
Ne Ne1109 1 0.565493 0.232823 0.795468 1.00 0.4929
Ne Ne1110 1 0.484277 0.447213 0.886110 1.00 0.5615
Ne Ne1111 1 0.466569 0.375564 0.884563 1.00 0.6514
Ne Ne1112 1 0.484277 0.447213 0.886110 1.00 0.5615
Ne Ne1113 1 0.469329 0.634568 0.835995 1.00 0.5019
Ne Ne1114 1 0.512456 0.561230 0.888573 1.00 0.7644
Ne Ne1115 1 0.659431 0.097194 0.933341 1.00 0.7878
Ne Ne1116 1 0.582742 0.082839 0.912033 1.00 0.9287
Ne Ne1117 1 0.614064 0.073317 0.846151 1.00 0.9181
Ne Ne1118 1 0.601563 0.041938 0.876032 1.00 0.9624
Ne Ne1119 1 0.691587 0.141709 0.800903 1.00 0.7069
Ne Ne1120 1 0.739990 0.257329 0.759031 1.00 0.7531
Ne Ne1121 1 0.780098 0.203973 0.860634 1.00 0.4749
Ne Ne1122 1 0.754351 0.181231 0.770754 1.00 0.8239
Ne Ne1123 1 0.614064 0.073317 0.846151 1.00 0.9181
Ne Ne1124 1 0.565493 0.232823 0.795468 1.00 0.4929
Ne Ne1125 1 0.691587 0.141709 0.800903 1.00 0.7069
Ne Ne1126 1 0.615241 0.065598 0.830004 1.00 0.9251
Ne Ne1127 1 0.644151 0.598946 0.938465 1.00 0.6084
Ne Ne1128 1 0.640192 0.607876 0.927903 1.00 0.6153
Ne Ne1129 1 0.516198 0.593157 0.940939 1.00 1.0473
Ne Ne1130 1 0.640192 0.607876 0.927903 1.00 0.6153
Ne Ne1131 1 0.512456 0.561230 0.888573 1.00 0.7644
Ne Ne1132 1 0.485288 0.670261 0.933889 1.00 0.9278
Ne Ne1133 1 0.615241 0.065598 0.830004 1.00 0.9251
Ne Ne1134 1 0.610035 0.053463 0.843614 1.00 0.9163
Ne Ne1135 1 0.544077 0.988726 0.780600 1.00 0.6445
Ne Ne1136 1 0.455923 0.988726 0.719400 1.00 0.6445
Ne Ne1137 1 0.531139 0.909143 0.718565 1.00 0.6761
Ne Ne1138 1 0.468861 0.909143 0.781435 1.00 0.6761
Ne Ne1139 1 0.478321 0.914474 0.840364 1.00 0.6026
Ne Ne1140 1 0.534063 0.969363 0.891361 1.00 0.7843
Ne Ne1141 1 0.510265 0.973568 0.912225 1.00 0.7760
Ne Ne1142 1 0.503242 0.828790 0.912059 1.00 0.5846
Ne Ne1143 1 0.375710 0.915721 0.785873 1.00 0.5412
Ne Ne1144 1 0.468861 0.909143 0.781435 1.00 0.6761
Ne Ne1145 1 0.478321 0.914474 0.840364 1.00 0.6026
Ne Ne1146 1 0.439002 0.796891 0.811578 1.00 0.5894
Ne Ne1147 1 0.601563 0.041938 0.876032 1.00 0.9624
Ne Ne1148 1 0.610035 0.053463 0.843614 1.00 0.9163
Ne Ne1149 1 0.969329 0.865432 0.835995 1.00 0.5019
Ne Ne1150 1 0.944636 0.823440 0.805891 1.00 0.5994
Ne Ne1151 1 0.968861 0.590857 0.781435 1.00 0.6761
Ne Ne1152 1 0.875710 0.584279 0.785873 1.00 0.5412
Ne Ne1153 1 0.978321 0.585526 0.840364 1.00 0.6026
Ne Ne1154 1 0.939002 0.703109 0.811578 1.00 0.5894
Ne Ne1155 1 0.034063 0.530637 0.891361 1.00 0.7843
Ne Ne1156 1 0.010265 0.526432 0.912225 1.00 0.7760
Ne Ne1157 1 0.003242 0.671210 0.912059 1.00 0.5846
Ne Ne1158 1 0.101563 0.458062 0.876032 1.00 0.9624
Ne Ne1159 1 0.110035 0.446537 0.843614 1.00 0.9163
Ne Ne1160 1 0.034063 0.530637 0.891361 1.00 0.7843
Ne Ne1161 1 0.947039 0.790760 0.854722 1.00 0.5941
Ne Ne1162 1 0.944636 0.823440 0.805891 1.00 0.5994
Ne Ne1163 1 0.939002 0.703109 0.811578 1.00 0.5894
Ne Ne1164 1 0.844647 0.763592 0.806602 1.00 0.4495
Ne Ne1165 1 0.286731 0.786453 0.791316 1.00 0.4942
Ne Ne1166 1 0.275701 0.691209 0.777073 1.00 0.4547
Ne Ne1167 1 0.344647 0.736408 0.806602 1.00 0.4495
Ne Ne1168 1 0.985288 0.829739 0.933889 1.00 0.9278
Ne Ne1169 1 0.947039 0.790760 0.854722 1.00 0.5941
Ne Ne1170 1 0.985288 0.829739 0.933889 1.00 0.9278
Ne Ne1171 1 0.444636 0.676560 0.805891 1.00 0.5994
Ne Ne1172 1 0.344647 0.736408 0.806602 1.00 0.4495
Ne Ne1173 1 0.447039 0.709240 0.854722 1.00 0.5941
Ne Ne1174 1 0.439002 0.796891 0.811578 1.00 0.5894
Ne Ne1175 1 0.485288 0.670261 0.933889 1.00 0.9278
Ne Ne1176 1 0.447039 0.709240 0.854722 1.00 0.5941
Ne Ne1177 1 0.485288 0.670261 0.933889 1.00 0.9278
Ne Ne1178 1 0.503242 0.828790 0.912059 1.00 0.5846
Ne Ne1179 1 0.786731 0.713547 0.791316 1.00 0.4942
Ne Ne1180 1 0.775701 0.808791 0.777073 1.00 0.4547
Ne Ne1181 1 0.844647 0.763592 0.806602 1.00 0.4495
Ne Ne1182 1 0.203677 0.996428 0.995639 1.00 0.6610
Ne Ne1183 1 0.161648 0.946845 0.992528 1.00 0.7791
Ne Ne1184 1 0.203677 0.996428 0.995639 1.00 0.6610
Ne Ne1185 1 0.144151 0.901054 0.938465 1.00 0.6084
Ne Ne1186 1 0.022820 0.461608 0.018080 1.00 0.6999
Ne Ne1187 1 0.018401 0.956969 0.999552 1.00 1.2151
Ne Ne1188 1 0.016198 0.906843 0.940939 1.00 1.0473
Ne Ne1189 1 0.144151 0.901054 0.938465 1.00 0.6084
Ne Ne1190 1 0.140193 0.892124 0.927903 1.00 0.6153
Ne Ne1191 1 0.012456 0.938770 0.888573 1.00 0.7644
Ne Ne1192 1 0.140193 0.892124 0.927903 1.00 0.6153
Ne Ne1193 1 0.016198 0.906843 0.940939 1.00 1.0473
Ne Ne1194 1 0.012456 0.938770 0.888573 1.00 0.7644
